feeders/1_SE001_1/004_chavesMT.dss
New Line.17CF_1219 phases=3 bus1=716821.1.2.3 bus2=17CF1219.1.2.3 r1=0.001 r0=0.001 x1=0 x0=0 c1=0 c0=0 length=0.001 switch=T
New Line.17CF_1585 phases=3 bus1=763721.1.2.3 bus2=17CF1585.1.2.3 r1=0.001 r0=0.001 x1=0 x0=0 c1=0 c0=0 length=0.001 switch=T
New Line.17CF_1933 phases=3 bus1=813001.1.2.3 bus2=17CF1933.1.2.3 r1=0.001 r0=0.001 x1=0 x0=0 c1=0 c0=0 length=0.001 switch=T
New Line.17CF_289 phases=3 bus1=352451.1.2.3 bus2=17CF289.1.2.3 r1=0.001 r0=0.001 x1=0 x0=0 c1=0 c0=0 length=0.001 switch=T
New Line.17CS_1754 phases=3 bus1=780501.1.2.3 bus2=17CS1754.1.2.3 r1=0.001 r0=0.001 x1=0 x0=0 c1=0 c0=0 length=0.001 switch=T
New Line.17DJ_1 phases=3 bus1=1_SE001_1.1.2.3 bus2=17DJ1.1.2.3 r1=0.001 r0=0.001 x1=0 x0=0 c1=0 c0=0 length=0.001 switch=T
New Line.17FR_499 phases=3 bus1=296921.1.2.3 bus2=17FR499.1.2.3 r1=0.001 r0=0.001 x1=0 x0=0 c1=0 c0=0 length=0.001 switch=T
New Line.17RL_5218 phases=3 bus1=789561.1.2.3 bus2=17RL5218.1.2.3 r1=0.001 r0=0.001 x1=0 x0=0 c1=0 c0=0 length=0.001 switch=T
New Line.1CF_1025 phases=3 bus1=163391.1.2.3 bus2=1CF1025.1.2.3 r1=0.001 r0=0.001 x1=0 x0=0 c1=0 c0=0 length=0.001 switch=T
New Line.1CF_1093 phases=3 bus1=255951.1.2.3 bus2=1CF1093.1.2.3 r1=0.001 r0=0.001 x1=0 x0=0 c1=0 c0=0 length=0.001 switch=T
New Line.1CF_1152 phases=3 bus1=736851.1.2.3 bus2=1CF1152.1.2.3 r1=0.001 r0=0.001 x1=0 x0=0 c1=0 c0=0 length=0.001 switch=T
New Line.1CF_1158 phases=3 bus1=255911.1.2.3 bus2=1CF1158.1.2.3 r1=0.001 r0=0.001 x1=0 x0=0 c1=0 c0=0 length=0.001 switch=T
New Line.1CF_1159 phases=3 bus1=255941.1.2.3 bus2=1CF1159.1.2.3 r1=0.001 r0=0.001 x1=0 x0=0 c1=0 c0=0 length=0.001 switch=T
New Line.1CF_116 phases=3 bus1=378911.1.2.3 bus2=1CF116.1.2.3 r1=0.001 r0=0.001 x1=0 x0=0 c1=0 c0=0 length=0.001 switch=T
New Line.1CF_1227 phases=3 bus1=711631.1.2.3 bus2=1CF1227.1.2.3 r1=0.001 r0=0.001 x1=0 x0=0 c1=0 c0=0 length=0.001 switch=T
New Line.1CF_1233 phases=3 bus1=715161.1.2.3 bus2=1CF1233.1.2.3 r1=0.001 r0=0.001 x1=0 x0=0 c1=0 c0=0 length=0.001 switch=T
New Line.1CF_1342 phases=3 bus1=736771.1.2.3 bus2=1CF1342.1.2.3 r1=0.001 r0=0.001 x1=0 x0=0 c1=0 c0=0 length=0.001 switch=T
New Line.1CF_137 phases=3 bus1=164051.1.2.3 bus2=1CF137.1.2.3 r1=0.001 r0=0.001 x1=0 x0=0 c1=0 c0=0 length=0.001 switch=T
New Line.1CF_1407 phases=1 bus1=315891.1 bus2=1CF1407.1 r1=0.001 r0=0.001 x1=0 x0=0 c1=0 c0=0 length=0.001 switch=T
New Line.1CF_144 phases=3 bus1=810831.1.2.3 bus2=1CF144.1.2.3 r1=0.001 r0=0.001 x1=0 x0=0 c1=0 c0=0 length=0.001 switch=T
New Line.1CF_1466 phases=3 bus1=677861.1.2.3 bus2=1CF1466.1.2.3 r1=0.001 r0=0.001 x1=0 x0=0 c1=0 c0=0 length=0.001 switch=T
New Line.1CF_1482 phases=1 bus1=254181.3 bus2=1CF1482.3 r1=0.001 r0=0.001 x1=0 x0=0 c1=0 c0=0 length=0.001 switch=T
New Line.1CF_1483 phases=3 bus1=682501.1.2.3 bus2=1CF1483.1.2.3 r1=0.001 r0=0.001 x1=0 x0=0 c1=0 c0=0 length=0.001 switch=T
New Line.1CF_1512 phases=3 bus1=690061.1.2.3 bus2=1CF1512.1.2.3 r1=0.001 r0=0.001 x1=0 x0=0 c1=0 c0=0 length=0.001 switch=T
New Line.1CF_1545 phases=1 bus1=559771.2 bus2=1CF1545.2 r1=0.001 r0=0.001 x1=0 x0=0 c1=0 c0=0 length=0.001 switch=T
New Line.1CF_1583 phases=3 bus1=781051.1.2.3 bus2=1CF1583.1.2.3 r1=0.001 r0=0.001 x1=0 x0=0 c1=0 c0=0 length=0.001 switch=T
New Line.1CF_1717 phases=3 bus1=772731.1.2.3 bus2=1CF1717.1.2.3 r1=0.001 r0=0.001 x1=0 x0=0 c1=0 c0=0 length=0.001 switch=T
New Line.1CF_1768 phases=3 bus1=782871.1.2.3 bus2=1CF1768.1.2.3 r1=0.001 r0=0.001 x1=0 x0=0 c1=0 c0=0 length=0.001 switch=T
New Line.1CF_1806 phases=3 bus1=812631.1.2.3 bus2=1CF1806.1.2.3 r1=0.001 r0=0.001 x1=0 x0=0 c1=0 c0=0 length=0.001 switch=T
New Line.1CF_252 phases=1 bus1=775251.1 bus2=1CF252.1 r1=0.001 r0=0.001 x1=0 x0=0 c1=0 c0=0 length=0.001 switch=T
New Line.1CF_632 phases=3 bus1=496111.1.2.3 bus2=1CF632.1.2.3 r1=0.001 r0=0.001 x1=0 x0=0 c1=0 c0=0 length=0.001 switch=T
New Line.1CF_634 phases=1 bus1=789941.1 bus2=1CF634.1 r1=0.001 r0=0.001 x1=0 x0=0 c1=0 c0=0 length=0.001 switch=T
New Line.1CF_635 phases=1 bus1=496131.1 bus2=1CF635.1 r1=0.001 r0=0.001 x1=0 x0=0 c1=0 c0=0 length=0.001 switch=T
New Line.1CF_637 phases=3 bus1=553441.1.2.3 bus2=1CF637.1.2.3 r1=0.001 r0=0.001 x1=0 x0=0 c1=0 c0=0 length=0.001 switch=T
New Line.1CF_642 phases=3 bus1=533001.1.2.3 bus2=1CF642.1.2.3 r1=0.001 r0=0.001 x1=0 x0=0 c1=0 c0=0 length=0.001 switch=T
New Line.1CF_67 phases=3 bus1=795221.1.2.3 bus2=1CF67.1.2.3 r1=0.001 r0=0.001 x1=0 x0=0 c1=0 c0=0 length=0.001 switch=T
New Line.1CF_675 phases=3 bus1=661581.1.2.3 bus2=1CF675.1.2.3 r1=0.001 r0=0.001 x1=0 x0=0 c1=0 c0=0 length=0.001 switch=T
New Line.1CF_681 phases=3 bus1=369541.1.2.3 bus2=1CF681.1.2.3 r1=0.001 r0=0.001 x1=0 x0=0 c1=0 c0=0 length=0.001 switch=T
New Line.1CF_682 phases=3 bus1=369551.1.2.3 bus2=1CF682.1.2.3 r1=0.001 r0=0.001 x1=0 x0=0 c1=0 c0=0 length=0.001 switch=T
New Line.1CF_686 phases=3 bus1=234641.1.2.3 bus2=1CF686.1.2.3 r1=0.001 r0=0.001 x1=0 x0=0 c1=0 c0=0 length=0.001 switch=T
New Line.1CF_687 phases=3 bus1=607621.1.2.3 bus2=1CF687.1.2.3 r1=0.001 r0=0.001 x1=0 x0=0 c1=0 c0=0 length=0.001 switch=T
New Line.1CF_692 phases=3 bus1=766691.1.2.3 bus2=1CF692.1.2.3 r1=0.001 r0=0.001 x1=0 x0=0 c1=0 c0=0 length=0.001 switch=T
New Line.1CF_771 phases=3 bus1=268821.1.2.3 bus2=1CF771.1.2.3 r1=0.001 r0=0.001 x1=0 x0=0 c1=0 c0=0 length=0.001 switch=T
New Line.1CF_905 phases=3 bus1=297151.1.2.3 bus2=1CF905.1.2.3 r1=0.001 r0=0.001 x1=0 x0=0 c1=0 c0=0 length=0.001 switch=T
New Line.1CF_924 phases=3 bus1=356331.1.2.3 bus2=1CF924.1.2.3 r1=0.001 r0=0.001 x1=0 x0=0 c1=0 c0=0 length=0.001 switch=T
New Line.1CF_955 phases=3 bus1=665041.1.2.3 bus2=1CF955.1.2.3 r1=0.001 r0=0.001 x1=0 x0=0 c1=0 c0=0 length=0.001 switch=T
New Line.1CS_107 phases=3 bus1=635611.1.2.3 bus2=1CS107.1.2.3 r1=0.001 r0=0.001 x1=0 x0=0 c1=0 c0=0 length=0.001 switch=T
New Line.1CS_1112 phases=3 bus1=756471.1.2.3 bus2=1CS1112.1.2.3 r1=0.001 r0=0.001 x1=0 x0=0 c1=0 c0=0 length=0.001 switch=T
New Line.1CS_1172 phases=3 bus1=553351.1.2.3 bus2=1CS1172.1.2.3 r1=0.001 r0=0.001 x1=0 x0=0 c1=0 c0=0 length=0.001 switch=T
New Line.1CS_1211 phases=3 bus1=668031.1.2.3 bus2=1CS1211.1.2.3 r1=0.001 r0=0.001 x1=0 x0=0 c1=0 c0=0 length=0.001 switch=T
New Line.1CS_1212 phases=3 bus1=810851.1.2.3 bus2=1CS1212.1.2.3 r1=0.001 r0=0.001 x1=0 x0=0 c1=0 c0=0 length=0.001 switch=T
New Line.1CS_1230 phases=3 bus1=382161.1.2.3 bus2=1CS1230.1.2.3 r1=0.001 r0=0.001 x1=0 x0=0 c1=0 c0=0 length=0.001 switch=T
New Line.1CS_1240 phases=3 bus1=775591.1.2.3 bus2=1CS1240.1.2.3 r1=0.001 r0=0.001 x1=0 x0=0 c1=0 c0=0 length=0.001 switch=T
New Line.1CS_1242 phases=3 bus1=519321.1.2.3 bus2=1CS1242.1.2.3 r1=0.001 r0=0.001 x1=0 x0=0 c1=0 c0=0 length=0.001 switch=T
New Line.1CS_1548 phases=3 bus1=720861.1.2.3 bus2=1CS1548.1.2.3 r1=0.001 r0=0.001 x1=0 x0=0 c1=0 c0=0 length=0.001 switch=T
New Line.1CS_1616 phases=3 bus1=755061.1.2.3 bus2=1CS1616.1.2.3 r1=0.001 r0=0.001 x1=0 x0=0 c1=0 c0=0 length=0.001 switch=T
New Line.1CS_1647 phases=3 bus1=780971.1.2.3 bus2=1CS1647.1.2.3 r1=0.001 r0=0.001 x1=0 x0=0 c1=0 c0=0 length=0.001 switch=T
New Line.1CS_1686 phases=3 bus1=616852.1.2.3 bus2=1CS1686.1.2.3 r1=0.001 r0=0.001 x1=0 x0=0 c1=0 c0=0 length=0.001 switch=T
New Line.1CS_631 phases=3 bus1=760841.1.2.3 bus2=1CS631.1.2.3 r1=0.001 r0=0.001 x1=0 x0=0 c1=0 c0=0 length=0.001 switch=T
New Line.1CS_658 phases=3 bus1=602161.1.2.3 bus2=1CS658.1.2.3 r1=0.001 r0=0.001 x1=0 x0=0 c1=0 c0=0 length=0.001 switch=T
New Line.1CS_677 phases=3 bus1=163302.1.2.3 bus2=1CS677.1.2.3 r1=0.001 r0=0.001 x1=0 x0=0 c1=0 c0=0 length=0.001 switch=T
New Line.1CS_678 phases=3 bus1=335121.1.2.3 bus2=1CS678.1.2.3 r1=0.001 r0=0.001 x1=0 x0=0 c1=0 c0=0 length=0.001 switch=T
New Line.1CS_869 phases=3 bus1=599891.1.2.3 bus2=1CS869.1.2.3 r1=0.001 r0=0.001 x1=0 x0=0 c1=0 c0=0 length=0.001 switch=T
New Line.1CS_992 phases=3 bus1=560111.1.2.3 bus2=1CS992.1.2.3 r1=0.001 r0=0.001 x1=0 x0=0 c1=0 c0=0 length=0.001 switch=T
New Line.1FR_1174 phases=1 bus1=167061.3 bus2=1FR1174.3 r1=0.001 r0=0.001 x1=0 x0=0 c1=0 c0=0 length=0.001 switch=T
New Line.1FR_1730 phases=3 bus1=778621.1.2.3 bus2=1FR1730.1.2.3 r1=0.001 r0=0.001 x1=0 x0=0 c1=0 c0=0 length=0.001 switch=T
New Line.1FR_633 phases=3 bus1=100671.1.2.3 bus2=1FR633.1.2.3 r1=0.001 r0=0.001 x1=0 x0=0 c1=0 c0=0 length=0.001 switch=T
New Line.1FR_636 phases=3 bus1=773821.1.2.3 bus2=1FR636.1.2.3 r1=0.001 r0=0.001 x1=0 x0=0 c1=0 c0=0 length=0.001 switch=T
New Line.1FR_638 phases=3 bus1=621511.1.2.3 bus2=1FR638.1.2.3 r1=0.001 r0=0.001 x1=0 x0=0 c1=0 c0=0 length=0.001 switch=T
New Line.1FR_66 phases=3 bus1=775271.1.2.3 bus2=1FR66.1.2.3 r1=0.001 r0=0.001 x1=0 x0=0 c1=0 c0=0 length=0.001 switch=T
New Line.1FR_737 phases=3 bus1=784001.1.2.3 bus2=1FR737.1.2.3 r1=0.001 r0=0.001 x1=0 x0=0 c1=0 c0=0 length=0.001 switch=T
New Line.1RL_1085 phases=3 bus1=639971.1.2.3 bus2=1RL1085.1.2.3 r1=0.001 r0=0.001 x1=0 x0=0 c1=0 c0=0 length=0.001 switch=T
New Line.1RL_114 phases=3 bus1=773812.1.2.3 bus2=1RL114.1.2.3 r1=0.001 r0=0.001 x1=0 x0=0 c1=0 c0=0 length=0.001 switch=T
